@<TRIPOS>MOLECULE
MOV
 73 77 0 0 0
SMALL
GASTEIGER

@<TRIPOS>ATOM
      1 C          -3.1480    2.8440   -1.3150 C.3     1  UNL1       -0.0450
      2 C          -3.8680    1.8640   -0.3860 C.3     1  UNL1        0.0378
      3 C          -4.7760    0.9440   -1.2110 C.3     1  UNL1        0.0330
      4 N          -5.2510   -0.1450   -0.3470 N.am    1  UNL1       -0.2982
      5 C          -6.5700   -0.3820   -0.2050 C.2     1  UNL1        0.2154
      6 O          -7.3770    0.3070   -0.7930 O.2     1  UNL1       -0.2756
      7 C          -7.0430   -1.5020    0.6850 C.3     1  UNL1        0.0213
      8 C          -8.5720   -1.5550    0.6700 C.3     1  UNL1       -0.0570
      9 C          -4.2620   -0.9720    0.3590 C.3     1  UNL1        0.0305
     10 C          -3.3540   -0.0520    1.1850 C.3     1  UNL1        0.0297
     11 N          -2.8790    1.0370    0.3200 N.pl3   1  UNL1       -0.3087
     12 C          -1.5370    1.2780    0.1750 C.ar    1  UNL1        0.1379
     13 N          -1.0710    2.5180    0.1270 N.ar    1  UNL1       -0.1769
     14 C           0.2290    2.7710   -0.0140 C.ar    1  UNL1        0.3563
     15 O           0.5940    3.9340   -0.0510 O.2     1  UNL1       -0.2440
     16 N           1.1570    1.8040   -0.1160 N.ar    1  UNL1       -0.2425
     17 C           2.5070    2.1460   -0.2610 C.ar    1  UNL1        0.0773
     18 C           3.0580    2.3270   -1.5280 C.ar    1  UNL1       -0.0232
     19 C           2.2170    2.1590   -2.7660 C.3     1  UNL1       -0.0376
     20 C           4.3980    2.6650   -1.6200 C.ar    1  UNL1       -0.0387
     21 C           5.1390    2.8110   -0.4620 C.ar    1  UNL1        0.0283
     22 N           4.5880    2.6330    0.7230 N.ar    1  UNL1       -0.2575
     23 C           3.3150    2.3160    0.8550 C.ar    1  UNL1        0.0680
     24 C           2.7320    2.1310    2.2330 C.3     1  UNL1       -0.0023
     25 C           3.4800    1.0090    2.9560 C.3     1  UNL1       -0.0572
     26 C           2.8740    3.4320    3.0260 C.3     1  UNL1       -0.0572
     27 C           0.7860    0.4740   -0.0780 C.ar    1  UNL1        0.1533
     28 N           1.6760   -0.4980   -0.1700 N.ar    1  UNL1       -0.2253
     29 C          -0.5820    0.1680    0.0760 C.ar    1  UNL1        0.0607
     30 C          -0.9920   -1.1680    0.1190 C.ar    1  UNL1       -0.0103
     31 C          -0.0330   -2.1420    0.0080 C.ar    1  UNL1        0.1502
     32 F          -0.3800   -3.4470    0.0440 F       1  UNL1       -0.2032
     33 C           1.3120   -1.7730   -0.1220 C.ar    1  UNL1        0.1147
     34 C           2.3440   -2.8270   -0.2420 C.ar    1  UNL1        0.0797
     35 C           2.3840   -3.8780    0.6770 C.ar    1  UNL1        0.1361
     36 F           1.4790   -3.9370    1.6790 F       1  UNL1       -0.2047
     37 C           3.3510   -4.8590    0.5590 C.ar    1  UNL1       -0.0256
     38 C           4.2790   -4.8030   -0.4650 C.ar    1  UNL1       -0.0556
     39 C           4.2490   -3.7660   -1.3800 C.ar    1  UNL1       -0.0193
     40 C           3.2820   -2.7790   -1.2800 C.ar    1  UNL1        0.1289
     41 O           3.2530   -1.7610   -2.1780 O.3     1  UNL1       -0.5060
     42 H          -2.4500    2.2970   -1.9490 H       1  UNL1        0.0248
     43 H          -3.8800    3.3570   -1.9380 H       1  UNL1        0.0248
     44 H          -2.6010    3.5750   -0.7190 H       1  UNL1        0.0248
     45 H          -4.4650    2.4180    0.3380 H       1  UNL1        0.0513
     46 H          -5.6270    1.5120   -1.5860 H       1  UNL1        0.0483
     47 H          -4.2130    0.5290   -2.0470 H       1  UNL1        0.0483
     48 H          -6.6430   -2.4490    0.3210 H       1  UNL1        0.0356
     49 H          -6.6950   -1.3290    1.7040 H       1  UNL1        0.0356
     50 H          -8.9200   -1.7280   -0.3480 H       1  UNL1        0.0234
     51 H          -8.9140   -2.3650    1.3140 H       1  UNL1        0.0234
     52 H          -8.9720   -0.6090    1.0350 H       1  UNL1        0.0234
     53 H          -4.7750   -1.6700    1.0210 H       1  UNL1        0.0480
     54 H          -3.6650   -1.5260   -0.3650 H       1  UNL1        0.0480
     55 H          -3.9170    0.3630    2.0210 H       1  UNL1        0.0480
     56 H          -2.5040   -0.6200    1.5620 H       1  UNL1        0.0480
     57 H           2.2630    1.1220   -3.0990 H       1  UNL1        0.0278
     58 H           1.1830    2.4230   -2.5420 H       1  UNL1        0.0278
     59 H           2.5960    2.8110   -3.5540 H       1  UNL1        0.0278
     60 H           4.8590    2.8130   -2.5860 H       1  UNL1        0.0636
     61 H           6.1850    3.0740   -0.5280 H       1  UNL1        0.0830
     62 H           1.6770    1.8700    2.1490 H       1  UNL1        0.0359
     63 H           3.0580    0.8750    3.9520 H       1  UNL1        0.0236
     64 H           3.3790    0.0830    2.3910 H       1  UNL1        0.0236
     65 H           4.5350    1.2710    3.0400 H       1  UNL1        0.0236
     66 H           2.3410    4.2310    2.5100 H       1  UNL1        0.0236
     67 H           2.4520    3.2980    4.0220 H       1  UNL1        0.0236
     68 H           3.9280    3.6940    3.1090 H       1  UNL1        0.0236
     69 H          -2.0340   -1.4260    0.2360 H       1  UNL1        0.0655
     70 H           3.3830   -5.6720    1.2700 H       1  UNL1        0.0646
     71 H           5.0320   -5.5730   -0.5510 H       1  UNL1        0.0620
     72 H           4.9740   -3.7320   -2.1790 H       1  UNL1        0.0654
     73 H           2.7070   -1.9390   -2.9560 H       1  UNL1        0.2922
@<TRIPOS>BOND
     1    18    19    1
     2    40    41    1
     3    39    40   ar
     4    38    39   ar
     5    34    40   ar
     6    18    20   ar
     7    17    18   ar
     8    20    21   ar
     9     2     3    1
    10     3     4    1
    11    37    38   ar
    12    33    34    1
    13    34    35   ar
    14    31    32    1
    15    31    33   ar
    16    28    33   ar
    17    30    31   ar
    18    27    28   ar
    19    29    30   ar
    20    27    29   ar
    21    16    27   ar
    22     2    11    1
    23     1     2    1
    24    12    29   ar
    25    16    17    1
    26    17    23   ar
    27    21    22   ar
    28    14    16   ar
    29    12    13   ar
    30    11    12    1
    31    13    14   ar
    32    14    15    2
    33    10    11    1
    34     5     7    1
    35     7     8    1
    36     9    10    1
    37     4     5   am
    38     4     9    1
    39    35    37   ar
    40    35    36    1
    41     5     6    2
    42    22    23   ar
    43    23    24    1
    44    24    25    1
    45    24    26    1
    46     1    42    1
    47     1    43    1
    48     1    44    1
    49     2    45    1
    50     3    46    1
    51     3    47    1
    52     7    48    1
    53     7    49    1
    54     8    50    1
    55     8    51    1
    56     8    52    1
    57     9    53    1
    58     9    54    1
    59    10    55    1
    60    10    56    1
    61    19    57    1
    62    19    58    1
    63    19    59    1
    64    20    60    1
    65    21    61    1
    66    24    62    1
    67    25    63    1
    68    25    64    1
    69    25    65    1
    70    26    66    1
    71    26    67    1
    72    26    68    1
    73    30    69    1
    74    37    70    1
    75    38    71    1
    76    39    72    1
    77    41    73    1
