# Name: MOV
# Created by ModelServer 0.9.9

# model_server_result.job_id: mm3y4dgWx6guH2Zp5KZ4Ew
# model_server_result.datetime_utc: 2022-05-29 17:18:20
# model_server_result.server_version: 0.9.9
# model_server_result.query_name: ligand
# model_server_result.source_id: pdb-bcif
# model_server_result.entry_id: 6oim

# model_server_params.name: atom_site
# model_server_params.value: {"label_asym_id":"D","auth_seq_id":303}

# model_server_stats.io_time_ms: 41
# model_server_stats.parse_time_ms: 73
# model_server_stats.create_model_time_ms: 4
# model_server_stats.query_time_ms: 214
# model_server_stats.encode_time_ms: 1
# model_server_stats.element_count: 41

@<TRIPOS>MOLECULE
MOV
41 45 1
****
****

@<TRIPOS>ATOM
1 C21 -2.610 -7.064 -0.371 C.3 1 MOV 0.000
2 C20 -1.985 -6.526 -1.667 C.3 1 MOV 0.000
3 C19 -2.541 -5.147 -2.020 C.3 1 MOV 0.000
4 N6 -2.128 -4.145 -1.011 N.am 1 MOV 0.000
5 C23 -2.919 -3.127 -0.691 C.2 1 MOV 0.000
6 O2 -2.563 -2.305 0.154 O.2 1 MOV 0.000
7 C24 -4.277 -2.959 -1.369 C.3 1 MOV 0.000
8 C25 -5.364 -2.168 -0.643 C.3 1 MOV 0.000
9 C18 -0.822 -4.289 -0.337 C.3 1 MOV 0.000
10 C17 0.121 -5.160 -1.149 C.3 1 MOV 0.000
11 N2 -0.516 -6.457 -1.522 N.pl3 1 MOV 0.000
12 C7 0.232 -7.655 -1.586 C.2 1 MOV 0.000
13 N3 -0.485 -8.794 -1.541 N.2 1 MOV 0.000
14 C8 0.088 -10.003 -1.564 C.2 1 MOV 0.000
15 O1 -0.606 -11.017 -1.525 O.2 1 MOV 0.000
16 N4 1.468 -10.112 -1.635 N.am 1 MOV 0.000
17 C9 2.047 -11.378 -1.648 C.ar 1 MOV 0.000
18 C13 2.347 -11.976 -2.860 C.ar 1 MOV 0.000
19 C22 2.037 -11.248 -4.165 C.3 1 MOV 0.000
20 C12 2.924 -13.240 -2.857 C.ar 1 MOV 0.000
21 C11 3.178 -13.859 -1.638 C.ar 1 MOV 0.000
22 N5 2.882 -13.267 -0.492 N.ar 1 MOV 0.000
23 C10 2.320 -12.047 -0.454 C.ar 1 MOV 0.000
24 C14 2.006 -11.420 0.913 C.3 1 MOV 0.000
25 C16 0.986 -12.270 1.683 C.3 1 MOV 0.000
26 C15 3.303 -11.287 1.711 C.3 1 MOV 0.000
27 C2 2.258 -8.966 -1.680 C.ar 1 MOV 0.000
28 N1 3.595 -9.086 -1.744 N.ar 1 MOV 0.000
29 C1 1.642 -7.717 -1.656 C.ar 1 MOV 0.000
30 C5 2.467 -6.591 -1.708 C.ar 1 MOV 0.000
31 C4 3.854 -6.742 -1.782 C.ar 1 MOV 0.000
32 F1 4.658 -5.663 -1.836 F 1 MOV 0.000
33 C3 4.408 -8.024 -1.795 C.ar 1 MOV 0.000
34 C6 5.789 -8.217 -1.865 C.ar 1 MOV 0.000
35 C30 6.635 -7.660 -0.895 C.ar 1 MOV 0.000
36 F2 6.144 -6.931 0.129 F 1 MOV 0.000
37 C29 8.011 -7.850 -0.968 C.ar 1 MOV 0.000
38 C28 8.550 -8.602 -2.005 C.ar 1 MOV 0.000
39 C27 7.719 -9.162 -2.966 C.ar 1 MOV 0.000
40 C26 6.343 -8.975 -2.901 C.ar 1 MOV 0.000
41 O3 5.556 -9.536 -3.856 O.3 1 MOV 0.000
@<TRIPOS>BOND
1 1 2 1
2 2 3 1
3 2 11 1
4 3 4 1
5 4 5 1
6 4 9 1
7 5 7 1
8 5 6 2
9 7 8 1
10 9 10 1
11 10 11 1
12 11 12 1
13 12 29 1
14 12 13 2
15 13 14 1
16 14 16 1
17 14 15 2
18 16 27 1
19 16 17 1
20 17 18 ar
21 17 23 ar
22 18 19 1
23 18 20 ar
24 20 21 ar
25 21 22 ar
26 22 23 ar
27 23 24 1
28 24 25 1
29 24 26 1
30 27 28 ar
31 27 29 ar
32 28 33 ar
33 29 30 ar
34 30 31 ar
35 31 32 1
36 31 33 ar
37 33 34 1
38 34 40 ar
39 34 35 ar
40 35 37 ar
41 35 36 1
42 37 38 ar
43 38 39 ar
44 39 40 ar
45 40 41 1
@<TRIPOS>SUBSTRUCTURE
1 MOV 1
